Circuit: * C:\users\wignesh\Desktop\sem4\ew-2\Audio-Amplifier-EW-2\Gain\initial-1-0-1.asc

WARNING: Node NC_01 is floating.

WARNING: Less than two connections to node NC_01.  This node is used by C2.
Direct Newton iteration for .op point succeeded.

Date: Fri Jan 03 19:29:57 2025
Total elapsed time: 0.038 seconds.

tnom = 27
temp = 27
method = modified trap
totiter = 2451
traniter = 2438
tranpoints = 1187
accept = 1103
rejected = 84
matrix size = 11
fillins = 0
solver = Normal
Matrix Compiler1: 610 bytes object code size  0.3/0.3/[0.2]
Matrix Compiler2: off  [0.2]/0.3/0.3

