Circuit: * C:\users\mostlyk\Documents\LTspiceXVII\EW-2\Pre-Gain\initial-1-0-1.asc

Warning: Multiple definitions of model "2scr375p" Type: BJT
Warning: Multiple definitions of model "bc857b" Type: BJT
Warning: Multiple definitions of model "bc847c" Type: BJT
Warning: Multiple definitions of model "bc847b" Type: BJT
Direct Newton iteration for .op point succeeded.

Date: Fri Jan 03 12:16:30 2025
Total elapsed time: 0.064 seconds.

tnom = 27
temp = 27
method = modified trap
totiter = 2380
traniter = 2372
tranpoints = 1187
accept = 1103
rejected = 84
matrix size = 15
fillins = 0
solver = Normal
Matrix Compiler1:      43 opcodes  0.5/[0.3]/0.4
Matrix Compiler2: off  [0.3]/0.4/0.9

